
**** 01/01/22 20:22:55 ****** PSpice 17.2.0 (March 2016) ****** ID# 0 ********

 ** Profile: "SCHEMATIC1-acsweep"  [ d:\arsham\term 3\pspicefiles\hw4_q2(2)_ect-PSpiceFiles\SCHEMATIC1\acsweep.sim ] 


 ****     CIRCUIT DESCRIPTION


******************************************************************************




** Creating circuit file "acsweep.cir" 
** WARNING: THIS AUTOMATICALLY GENERATED FILE MAY BE OVERWRITTEN BY SUBSEQUENT SIMULATIONS

*Libraries: 
* Profile Libraries :
* Local Libraries :
* From [PSPICE NETLIST] section of C:\SPB_Data\cdssetup\OrCAD_PSpice\17.2.0\PSpice.ini file:
.lib "nom.lib" 

*Analysis directives: 
.AC DEC 100 1000 1000000
.OPTIONS ADVCONV
.PROBE64 V(alias(*)) I(alias(*)) W(alias(*)) D(alias(*)) NOISE(alias(*)) 
.INC "..\SCHEMATIC1.net" 



**** INCLUDING SCHEMATIC1.net ****
* source HW4_Q2(2)_ECT
R_R1         N01202 N01212  1 TC=0,0 
R_R3         N01350 N01360  1 TC=0,0 
R_R2         0 N01202  1 TC=0,0 
C_C1         0 N01360  1u  TC=0,0 
I_I2         N01212 0 DC 0Adc AC 0Aac 
I_I1         N01350 0 DC 0Adc AC 1Aac 
E_U2         N01212 0 VALUE {LIMIT(V(N01360,N01202)*1E6,-15V,+15V)}

**** RESUMING acsweep.cir ****
.END

ERROR(ORPSIM-15142): Node N01350 is floating

ERROR(ORPSIM-15142): Node N01360 is floating
