
**** 12/12/21 23:54:45 ****** PSpice 17.2.0 (March 2016) ****** ID# 0 ********

 ** Profile: "SCHEMATIC1-trans"  [ D:\ARSHAM\TERM 3\PspiceFiles\Q1-PSpiceFiles\SCHEMATIC1\trans.sim ] 


 ****     CIRCUIT DESCRIPTION


******************************************************************************




** Creating circuit file "trans.cir" 
** WARNING: THIS AUTOMATICALLY GENERATED FILE MAY BE OVERWRITTEN BY SUBSEQUENT SIMULATIONS

*Libraries: 
* Profile Libraries :
* Local Libraries :
* From [PSPICE NETLIST] section of C:\SPB_Data\cdssetup\OrCAD_PSpice\17.2.0\PSpice.ini file:
.lib "nom.lib" 

*Analysis directives: 
.TRAN  0 5ms 0 1us 
.OPTIONS ADVCONV
.PROBE64 V(alias(*)) I(alias(*)) W(alias(*)) D(alias(*)) NOISE(alias(*)) 
.INC "..\SCHEMATIC1.net" 



**** INCLUDING SCHEMATIC1.net ****
* source Q1
L_L1         N00206 N00210  12mH  
C_C1         N00192 N00210  220u  TC=0,0 
C_C2         N00188 0  470u  TC=0,0 
R_R1         N00192 N00206  10 TC=0,0 
I_I1         N00210 0 DC 0Adc AC 0Aac
+SIN 0 2 1000 0 0 0
V_V1         N00192 N00188  AC 1
+SIN 0 10 1000 0 0 0
I_I2         N00458 0 DC 0Adc  
R_R2         N00458 N00210  0.000001 TC=0,0 

**** RESUMING trans.cir ****
.END

ERROR(ORPSIM-15142): Node N00206 is floating

ERROR(ORPSIM-15142): Node N00210 is floating

ERROR(ORPSIM-15142): Node N00192 is floating

ERROR(ORPSIM-15142): Node N00188 is floating

ERROR(ORPSIM-15142): Node N00458 is floating
