
**** 10/11/21 12:49:20 ****** PSpice 17.2.0 (March 2016) ****** ID# 0 ********

 ** Profile: "SCHEMATIC1-Q02"  [ D:\arsham\TERM 2\PSPICE CURCUITS\hw01_q02-pspicefiles\schematic1\q02.sim ] 


 ****     CIRCUIT DESCRIPTION


******************************************************************************




** Creating circuit file "Q02.cir" 
** WARNING: THIS AUTOMATICALLY GENERATED FILE MAY BE OVERWRITTEN BY SUBSEQUENT SIMULATIONS

*Libraries: 
* Profile Libraries :
* Local Libraries :
* From [PSPICE NETLIST] section of C:\SPB_Data\cdssetup\OrCAD_PSpice\17.2.0\PSpice.ini file:
.lib "nom.lib" 

*Analysis directives: 
.AC LIN 10000 1 10000000
.OPTIONS ADVCONV
.PROBE64 V(alias(*)) I(alias(*)) W(alias(*)) D(alias(*)) NOISE(alias(*)) 
.INC "..\SCHEMATIC1.net" 



**** INCLUDING SCHEMATIC1.net ****
* source HW01_Q02
L_L1         N00245 0  8mH  
L_L2         N00226 0  18mH  
R_R1         N00219 N00226  200 TC=0,0 
R_R2         0 N00245  1k TC=0,0 
Kn_K1         L_L1 L_L2     0.5
V_V1         N00287 0 DC 0Vdc AC 1Vac {p} 
R_R3         N00287 N00293  0.002 TC=0,0 
L_L3         0 N00293  102mH  
L_L4         0 N00219  18.545mH  
L_L5         N01359 N00293  14.571mH  
R_R4         N01359 N00219  0.002 TC=0,0 

**** RESUMING Q02.cir ****
.END

ERROR(ORPSIM-15167): Undefined parameter: p.
