
**** 10/11/21 13:08:39 ****** PSpice 17.2.0 (March 2016) ****** ID# 0 ********

 ** Profile: "SCHEMATIC1-Q02"  [ d:\arsham\term 2\pspice curcuits\hw01_q02-pspicefiles\schematic1\q02.sim ] 


 ****     CIRCUIT DESCRIPTION


******************************************************************************




** Creating circuit file "Q02.cir" 
** WARNING: THIS AUTOMATICALLY GENERATED FILE MAY BE OVERWRITTEN BY SUBSEQUENT SIMULATIONS

*Libraries: 
* Profile Libraries :
* Local Libraries :
* From [PSPICE NETLIST] section of C:\SPB_Data\cdssetup\OrCAD_PSpice\17.2.0\PSpice.ini file:
.lib "nom.lib" 

*Analysis directives: 
.AC LIN 10000 1 10000000
.OPTIONS ADVCONV
.PROBE64 V(alias(*)) I(alias(*)) W(alias(*)) D(alias(*)) NOISE(alias(*)) 
.INC "..\SCHEMATIC1.net" 



**** INCLUDING SCHEMATIC1.net ****
* source HW01_Q02
L_L1         N00245 0  8mH  
L_L2         N00226 0  18mH  
L_L3         N00219 0  16mH  
L_L4         N00293 0  25mH  
R_R1         N00219 N00226  200 TC=0,0 
R_R2         0 N00245  1k TC=0,0 
Kn_K1         L_L1 L_L2     0.5
Kn_K2         L_L3 L_L4     0.7
V_V1         N00287 0 DC 0Vdc AC 1Vac {p} 
R_R3         N00287 N00293  0.002 TC=0,0 
.PARAM  p=75

**** RESUMING Q02.cir ****
.END

**** 10/11/21 13:08:39 ****** PSpice 17.2.0 (March 2016) ****** ID# 0 ********

 ** Profile: "SCHEMATIC1-Q02"  [ d:\arsham\term 2\pspice curcuits\hw01_q02-pspicefiles\schematic1\q02.sim ] 


 ****     SMALL SIGNAL BIAS SOLUTION       TEMPERATURE =   27.000 DEG C


******************************************************************************



 NODE   VOLTAGE     NODE   VOLTAGE     NODE   VOLTAGE     NODE   VOLTAGE


(N00219)    0.0000 (N00226)    0.0000 (N00245)    0.0000 (N00287)    0.0000     

(N00293)    0.0000 




    VOLTAGE SOURCE CURRENTS
    NAME         CURRENT

    V_V1         0.000E+00

    TOTAL POWER DISSIPATION   0.00E+00  WATTS



          JOB CONCLUDED

**** 10/11/21 13:08:39 ****** PSpice 17.2.0 (March 2016) ****** ID# 0 ********

 ** Profile: "SCHEMATIC1-Q02"  [ d:\arsham\term 2\pspice curcuits\hw01_q02-pspicefiles\schematic1\q02.sim ] 


 ****     JOB STATISTICS SUMMARY


******************************************************************************



  Total job time (using Solver 1)   =         .14
